Version 4
SHEET 1 1956 1560
WIRE 80 -384 -880 -384
WIRE -560 -240 -576 -240
WIRE -544 -240 -560 -240
WIRE -320 -240 -336 -240
WIRE -304 -240 -320 -240
WIRE -96 -240 -176 -240
WIRE -560 -208 -560 -240
WIRE -320 -208 -320 -240
WIRE -176 -208 -176 -240
WIRE -560 -96 -560 -128
WIRE -320 -96 -320 -128
WIRE -176 -96 -176 -128
WIRE -96 -96 -176 -96
WIRE -176 -64 -176 -96
WIRE -880 -16 -880 -384
WIRE 80 -16 80 -384
WIRE 80 -16 -880 -16
WIRE 80 48 -880 48
WIRE -144 112 -240 112
WIRE -96 112 -144 112
WIRE -240 160 -240 112
WIRE -240 272 -240 240
WIRE -208 272 -240 272
WIRE -240 304 -240 272
WIRE -144 368 -144 112
WIRE -32 368 -144 368
WIRE -32 384 -32 368
WIRE -640 432 -688 432
WIRE -576 432 -640 432
WIRE -448 432 -496 432
WIRE -240 432 -240 384
WIRE -240 432 -288 432
WIRE -144 448 -144 368
WIRE -448 512 -576 512
WIRE -192 512 -288 512
WIRE -32 512 -32 464
WIRE -576 592 -576 512
WIRE -208 592 -208 272
WIRE -144 624 -144 512
WIRE -32 624 -32 576
WIRE -32 624 -144 624
WIRE -208 704 -208 656
WIRE -144 704 -144 624
WIRE -144 704 -208 704
WIRE -144 736 -144 704
WIRE -96 736 -144 736
WIRE 0 736 -16 736
WIRE -880 800 -880 48
WIRE 80 800 80 48
WIRE 80 800 -880 800
WIRE 16 864 -880 864
WIRE -512 1056 -528 1056
WIRE -496 1056 -512 1056
WIRE -512 1120 -512 1056
WIRE -512 1216 -512 1200
WIRE -384 1216 -512 1216
WIRE -512 1248 -512 1216
WIRE -512 1376 -512 1328
WIRE -880 1488 -880 864
WIRE 16 1488 16 864
WIRE 16 1488 -880 1488
FLAG -576 592 0
FLAG -560 -96 0
FLAG -320 -96 0
FLAG -320 -240 +5
FLAG -512 1056 +5
FLAG -512 1376 0
FLAG -384 1216 Temp
FLAG -560 -240 Control
FLAG -96 -96 Rede-
FLAG -96 -240 Rede+
FLAG -96 112 Rede+
FLAG 0 736 Rede-
FLAG -640 432 Control
FLAG -176 -64 0
SYMBOL voltage -176 -224 R0
WINDOW 123 0 0 Left 0
WINDOW 39 0 0 Left 0
SYMATTR InstName Rede
SYMATTR Value SINE(0 325 50 0)
SYMBOL res 0 720 R90
WINDOW 0 0 56 VBottom 2
WINDOW 3 32 56 VTop 2
SYMATTR InstName LOAD
SYMATTR Value 35
SYMBOL res -592 448 R270
WINDOW 0 32 56 VTop 2
WINDOW 3 0 56 VBottom 2
SYMATTR InstName R2
SYMATTR Value 200
SYMBOL voltage -560 -224 M0
WINDOW 123 0 0 Left 0
WINDOW 39 0 0 Left 0
WINDOW 3 -137 168 Left 2
SYMATTR Value PULSE(0 5 0 1u 1u 40m 60m)
SYMATTR InstName ArduinoOut
SYMBOL voltage -320 -224 M0
WINDOW 123 0 0 Left 0
WINDOW 39 0 0 Left 0
SYMATTR InstName Digital_Source
SYMATTR Value 5
SYMBOL ZZZ\\miscellaneous\\ntc_resistor -528 1232 R0
SYMATTR Value R0=10
SYMATTR InstName U5
SYMBOL res -528 1104 R0
SYMATTR InstName R7
SYMATTR Value 330
SYMBOL ZZZ\\OPTO\\MOC3020 -400 448 R0
SYMATTR InstName U2
SYMBOL ZZZ\\Triac\\BT_TRIAC -176 448 R0
SYMATTR InstName U4
SYMBOL res -48 368 R0
SYMATTR InstName R1
SYMATTR Value 47
SYMBOL cap -48 512 R0
SYMATTR InstName C1
SYMATTR Value 330n
SYMBOL res -256 144 R0
SYMATTR InstName R6
SYMATTR Value 510
SYMBOL res -256 288 R0
SYMATTR InstName R13
SYMATTR Value 330
SYMBOL cap -224 592 R0
SYMATTR InstName C2
SYMATTR Value 220n
TEXT -832 312 Left 2 !.tran 0 120m 0 0.1m
TEXT -824 128 Left 2 ;Triac U1: BT137\nOptotriac: MOC3020
TEXT -632 936 Left 2 ;Sensor de temperatura NTC R0=10R
TEXT -472 88 Left 2 ;Atuador
TEXT -432 -360 Left 2 ;Sources
