Version 4
SHEET 1 1956 1556
WIRE 80 -384 -880 -384
WIRE -560 -240 -576 -240
WIRE -544 -240 -560 -240
WIRE -320 -240 -336 -240
WIRE -304 -240 -320 -240
WIRE -96 -240 -176 -240
WIRE -560 -208 -560 -240
WIRE -320 -208 -320 -240
WIRE -176 -208 -176 -240
WIRE -560 -96 -560 -128
WIRE -320 -96 -320 -128
WIRE -176 -96 -176 -128
WIRE -96 -96 -176 -96
WIRE 352 -80 336 -80
WIRE 480 -80 352 -80
WIRE 608 -80 560 -80
WIRE 656 -80 608 -80
WIRE 800 -80 736 -80
WIRE 992 -80 960 -80
WIRE 1072 -80 992 -80
WIRE 1136 -80 1072 -80
WIRE 1264 -80 1200 -80
WIRE 1312 -80 1264 -80
WIRE 1456 -80 1392 -80
WIRE -176 -64 -176 -96
WIRE 992 -32 992 -80
WIRE -880 -16 -880 -384
WIRE 80 -16 80 -384
WIRE 80 -16 -880 -16
WIRE 608 0 608 -80
WIRE 1072 0 1072 -80
WIRE 1264 0 1264 -80
WIRE 1456 0 1456 -80
WIRE 80 48 -880 48
WIRE 992 80 992 48
WIRE -144 112 -240 112
WIRE -96 112 -144 112
WIRE -240 160 -240 112
WIRE -240 272 -240 240
WIRE -208 272 -240 272
WIRE -240 304 -240 272
WIRE -144 368 -144 112
WIRE -32 368 -144 368
WIRE -32 384 -32 368
WIRE -640 432 -688 432
WIRE -576 432 -640 432
WIRE -448 432 -496 432
WIRE -240 432 -240 384
WIRE -240 432 -288 432
WIRE -144 448 -144 368
WIRE -448 512 -576 512
WIRE -192 512 -288 512
WIRE -32 512 -32 464
WIRE -576 592 -576 512
WIRE -208 592 -208 272
WIRE -144 624 -144 512
WIRE -32 624 -32 576
WIRE -32 624 -144 624
WIRE -208 704 -208 656
WIRE -144 704 -144 624
WIRE -144 704 -208 704
WIRE -144 736 -144 704
WIRE -96 736 -144 736
WIRE 0 736 -16 736
WIRE -880 800 -880 48
WIRE 80 800 80 48
WIRE 80 800 -880 800
WIRE 272 864 -880 864
WIRE -672 1008 -688 1008
WIRE -656 1008 -672 1008
WIRE -672 1072 -672 1008
WIRE -320 1072 -384 1072
WIRE -160 1072 -240 1072
WIRE -288 1152 -304 1152
WIRE -272 1152 -288 1152
WIRE -672 1168 -672 1152
WIRE -544 1168 -672 1168
WIRE -384 1168 -384 1072
WIRE -384 1168 -464 1168
WIRE -672 1200 -672 1168
WIRE -288 1200 -288 1152
WIRE -384 1216 -384 1168
WIRE -320 1216 -384 1216
WIRE -160 1232 -160 1072
WIRE -160 1232 -256 1232
WIRE -48 1232 -160 1232
WIRE -320 1248 -384 1248
WIRE -672 1296 -672 1280
WIRE -544 1296 -672 1296
WIRE -384 1296 -384 1248
WIRE -384 1296 -464 1296
WIRE -288 1312 -288 1264
WIRE -672 1344 -672 1296
WIRE -384 1360 -384 1296
WIRE -672 1456 -672 1424
WIRE -384 1456 -384 1440
WIRE -880 1552 -880 864
WIRE 272 1552 272 864
WIRE 272 1552 -880 1552
FLAG -576 592 0
FLAG -560 -96 0
FLAG -320 -96 0
FLAG -320 -240 +5
FLAG -672 1008 +5
FLAG -672 1456 0
FLAG -288 1312 0
FLAG -288 1152 +5
FLAG -48 1232 Temp
FLAG -384 1456 0
FLAG -560 -240 Control
FLAG -96 -96 Rede-
FLAG -96 -240 Rede+
FLAG -96 112 Rede+
FLAG 0 736 Rede-
FLAG -640 432 Control
FLAG -176 -64 0
FLAG 352 -80 Vermelho
FLAG 608 0 Branco
FLAG 1072 0 azul
FLAG 1264 0 preto
FLAG 1456 0 amarelo
FLAG 992 80 Verde
FLAG 880 -160 fan
FLAG 880 0 fan
SYMBOL voltage -176 -224 R0
WINDOW 123 0 0 Left 0
WINDOW 39 0 0 Left 0
SYMATTR InstName Rede
SYMATTR Value SINE(0 325 50 0)
SYMBOL res 0 720 R90
WINDOW 0 0 56 VBottom 2
WINDOW 3 32 56 VTop 2
SYMATTR InstName LOAD
SYMATTR Value 35
SYMBOL res -592 448 R270
WINDOW 0 32 56 VTop 2
WINDOW 3 0 56 VBottom 2
SYMATTR InstName R2
SYMATTR Value 200
SYMBOL voltage -560 -224 M0
WINDOW 123 0 0 Left 0
WINDOW 39 0 0 Left 0
WINDOW 3 -137 168 Left 2
SYMATTR Value PULSE(0 5 0 1u 1u 40m 60m)
SYMATTR InstName ArduinoOut
SYMBOL voltage -320 -224 M0
WINDOW 123 0 0 Left 0
WINDOW 39 0 0 Left 0
SYMATTR InstName Digital_Source
SYMATTR Value 5
SYMBOL ZZZ\\miscellaneous\\ntc_resistor -688 1184 R0
SYMATTR Value R0=10
SYMATTR InstName U5
SYMBOL res -688 1328 R0
SYMATTR InstName R3
SYMATTR Value 1k2
SYMBOL res -688 1056 R0
SYMATTR InstName R7
SYMATTR Value 1k2
SYMBOL res -448 1152 R90
WINDOW 0 0 56 VBottom 2
WINDOW 3 32 56 VTop 2
SYMATTR InstName R8
SYMATTR Value 10k
SYMBOL res -448 1280 R90
WINDOW 0 0 56 VBottom 2
WINDOW 3 32 56 VTop 2
SYMATTR InstName R9
SYMATTR Value 10k
SYMBOL ZZZ\\OpAmp\\TL082 -288 1232 R0
SYMATTR InstName U6
SYMBOL res -224 1056 R90
WINDOW 0 0 56 VBottom 2
WINDOW 3 32 56 VTop 2
SYMATTR InstName R10
SYMATTR Value 10k
SYMBOL res -368 1456 R180
WINDOW 0 36 76 Left 2
WINDOW 3 36 40 Left 2
SYMATTR InstName R11
SYMATTR Value 10k
SYMBOL ZZZ\\FUSE\\fuse2 528 -80 R0
SYMATTR InstName U1
SYMBOL res 752 -96 R90
WINDOW 0 0 56 VBottom 2
WINDOW 3 32 56 VTop 2
SYMATTR InstName R4
SYMATTR Value 140
SYMBOL ZZZ\\bridgerectifier\\bridgerectifier 880 -80 R90
WINDOW 0 -2 -14 VRight 2
SYMATTR InstName U3
SYMBOL res 1008 64 R180
WINDOW 0 36 76 Left 2
WINDOW 3 36 40 Left 2
SYMATTR InstName R5
SYMATTR Value 70
SYMBOL diode 1136 -64 R270
WINDOW 0 32 32 VTop 2
WINDOW 3 0 32 VBottom 2
SYMATTR InstName D1
SYMATTR Value 1N4148
SYMBOL res 1408 -96 R90
WINDOW 0 0 56 VBottom 2
WINDOW 3 32 56 VTop 2
SYMATTR InstName R12
SYMATTR Value 70
SYMBOL ZZZ\\OPTO\\MOC3020 -400 448 R0
SYMATTR InstName U2
SYMBOL ZZZ\\Triac\\BT_TRIAC -176 448 R0
SYMATTR InstName U4
SYMBOL res -48 368 R0
SYMATTR InstName R1
SYMATTR Value 47
SYMBOL cap -48 512 R0
SYMATTR InstName C1
SYMATTR Value 330n
SYMBOL res -256 144 R0
SYMATTR InstName R6
SYMATTR Value 510
SYMBOL res -256 288 R0
SYMATTR InstName R13
SYMATTR Value 330
SYMBOL cap -224 592 R0
SYMATTR InstName C2
SYMATTR Value 220n
TEXT -832 312 Left 2 !.tran 0 120m 0 0.1m
TEXT -824 128 Left 2 ;Triac U1: BT137\nOptotriac: MOC3020
TEXT -496 920 Left 2 ;Sensor de temperatura NTC R0=10R
TEXT -472 88 Left 2 ;Atuador
TEXT -432 -360 Left 2 ;Sources
